OPT_V10/Two_days_MYC3/powerflow_results_t16.txt
Pandapower Network Debug Info
==================================================

BUS:
       vm_pu  va_degree      p_mw    q_mvar
0   0.992710   0.152985  0.000670  0.001071
1   0.988228   0.240933  0.001443  0.001776
2   0.983969   0.341900  0.001962  0.003424
3   0.988484   0.252171  0.002656  0.004615
4   0.999882   0.001048  0.010845  0.011658
5   0.999868   0.001117  0.011938  0.009818
6   0.999859   0.001200  0.010294  0.010991
7   0.999927   0.000752  0.000000  0.000000
8   0.999927   0.000759  0.000000  0.000000
9   1.000000   0.000000 -0.039968 -0.048463
10  1.000000   0.000007  0.000000  0.000000
--------------------------------------------------

LINE:
   p_from_mw  q_from_mvar   p_to_mw  q_to_mvar         pl_mw       ql_mvar  i_from_ka   i_to_ka      i_ka  vm_from_pu  va_from_degree  vm_to_pu  va_to_degree  loading_percent
0   0.039958     0.044463 -0.039955  -0.044460  3.495503e-06  2.725501e-06   0.002301  0.002301  0.002301    1.000000        0.000007  0.999927      0.000752         1.000406
1   0.033079     0.032468 -0.033077  -0.032467  1.661552e-06  1.295539e-06   0.001784  0.001784  0.001784    0.999927        0.000752  0.999882      0.001048         0.775726
2   0.006866     0.010992 -0.006788  -0.010931  7.857783e-05  6.126843e-05   0.018708  0.018708  0.018708    0.999927        0.000759  0.992710      0.152985         8.134078
3  -0.022232    -0.020809  0.022232   0.020809  3.207569e-07  2.500994e-07   0.001172  0.001172  0.001172    0.999868        0.001117  0.999882      0.001048         0.509661
4  -0.010294    -0.010991  0.010294   0.010991  1.109368e-07  8.649927e-08   0.000580  0.000580  0.000580    0.999859        0.001200  0.999868      0.001117         0.252043
5  -0.003420    -0.005212  0.003443   0.005230  2.353745e-05  1.835254e-05   0.009104  0.009104  0.009104    0.988228        0.240933  0.992710      0.152985         3.958294
6  -0.002656    -0.004615  0.002675   0.004630  1.937194e-05  1.510462e-05   0.007775  0.007775  0.007775    0.988484        0.252171  0.992710      0.152985         3.380279
7  -0.001962    -0.003424  0.001976   0.003435  1.454970e-05  1.134464e-05   0.005789  0.005789  0.005789    0.983969        0.341900  0.988228      0.240933         2.516817
--------------------------------------------------

TRAFO:
    p_hv_mw  q_hv_mvar   p_lv_mw  q_lv_mvar    pl_mw  ql_mvar   i_hv_ka   i_lv_ka  vm_hv_pu  va_hv_degree  vm_lv_pu  va_lv_degree  loading_percent
0  0.006876   0.011992 -0.006866  -0.010992  0.00001    0.001  0.000532  0.018708  0.999927      0.000752  0.999927      0.000759         0.138247
1  0.039968   0.048463 -0.039958  -0.044463  0.00001    0.004  0.000518  0.002301  1.000000      0.000000  1.000000      0.000007         0.157046
--------------------------------------------------
